&OBST XB= -0.13, 0.13, -0.01, 0.01, -0.01, 0.01 /

&TAIL /
